Version 4
SHEET 1 880 680
WIRE -1504 -656 -1696 -656
WIRE -1376 -656 -1504 -656
WIRE -1136 -656 -1376 -656
WIRE -896 -656 -1056 -656
WIRE -688 -656 -800 -656
WIRE -656 -656 -688 -656
WIRE -560 -656 -576 -656
WIRE -352 -656 -560 -656
WIRE -288 -656 -352 -656
WIRE -192 -656 -288 -656
WIRE -32 -656 -192 -656
WIRE -1504 -640 -1504 -656
WIRE -288 -640 -288 -656
WIRE -192 -640 -192 -656
WIRE -32 -624 -32 -656
WIRE -1376 -592 -1376 -656
WIRE -816 -592 -816 -608
WIRE -1248 -576 -1248 -592
WIRE -1504 -544 -1504 -560
WIRE -1440 -544 -1504 -544
WIRE -288 -544 -288 -576
WIRE -192 -544 -192 -560
WIRE -1504 -512 -1504 -544
WIRE -896 -496 -912 -496
WIRE -816 -496 -816 -512
WIRE -816 -496 -832 -496
WIRE -352 -480 -352 -656
WIRE -32 -480 -32 -544
WIRE 128 -480 -32 -480
WIRE -1376 -464 -1376 -496
WIRE -1248 -464 -1248 -512
WIRE -1248 -464 -1376 -464
WIRE -944 -464 -1248 -464
WIRE -944 -448 -944 -464
WIRE -816 -448 -816 -496
WIRE -688 -448 -688 -656
WIRE -560 -448 -560 -656
WIRE -32 -448 -32 -480
WIRE -1376 -432 -1376 -464
WIRE -1696 -416 -1696 -656
WIRE -1248 -384 -1248 -464
WIRE -1008 -384 -1248 -384
WIRE -352 -384 -352 -400
WIRE -352 -384 -496 -384
WIRE -352 -368 -352 -384
WIRE 128 -368 128 -400
WIRE 224 -368 128 -368
WIRE 128 -352 128 -368
WIRE -1376 -320 -1376 -352
WIRE -1008 -320 -1376 -320
WIRE -1376 -288 -1376 -320
WIRE -352 -272 -352 -288
WIRE -32 -256 -32 -368
WIRE 128 -256 128 -288
WIRE -656 -176 -656 -192
WIRE -1696 -112 -1696 -336
WIRE -1504 -112 -1504 -448
WIRE -1376 -112 -1376 -208
WIRE -848 -96 -848 -192
WIRE -656 -96 -656 -112
FLAG -1696 -112 0
FLAG -288 -544 0
FLAG -192 -544 0
FLAG -352 -272 0
FLAG -656 -96 0
FLAG -848 -96 0
FLAG -1504 -112 0
FLAG -912 -496 0
FLAG -1248 -592 0
FLAG -1376 -112 0
FLAG -1696 -656 IN
FLAG -192 -656 OUT
FLAG -32 -256 0
FLAG 128 -256 0
FLAG 224 -368 Microcontroller_analog_input
IOPIN 224 -368 Out
SYMBOL res -832 -608 R0
SYMATTR InstName R1
SYMATTR Value 10
SYMBOL res -672 -640 R270
WINDOW 0 32 56 VTop 2
WINDOW 3 0 56 VBottom 2
SYMATTR InstName R2
SYMATTR Value 8.33m
SYMBOL res -368 -496 R0
SYMATTR InstName R3
SYMATTR Value 130k
SYMBOL res -368 -384 R0
SYMATTR InstName R4
SYMATTR Value 12k
SYMBOL cap -832 -512 R90
WINDOW 0 0 32 VBottom 2
WINDOW 3 32 32 VTop 2
SYMATTR InstName C1
SYMATTR Value 47n
SYMBOL cap -672 -176 R0
SYMATTR InstName C2
SYMATTR Value 6.8µ
SYMBOL cap -304 -640 R0
SYMATTR InstName C3
SYMATTR Value 22µ
SYMBOL voltage -1696 -432 R0
WINDOW 123 24 138 Left 2
WINDOW 39 24 117 Left 2
SYMATTR InstName V1
SYMATTR Value PWL(0 15 9 10.6)
SYMBOL res -1520 -656 R0
SYMATTR InstName R5
SYMATTR Value 1K
SYMBOL zener -1520 -448 M180
WINDOW 0 24 64 Left 2
WINDOW 3 24 0 Left 2
SYMATTR InstName D1
SYMATTR Value EDZV24B
SYMBOL res -1392 -448 R0
SYMATTR InstName R6
SYMATTR Value 10k
SYMBOL res -1392 -304 R0
SYMATTR InstName R7
SYMATTR Value 1.425k
SYMBOL cap -1264 -576 R0
SYMATTR InstName C4
SYMATTR Value 0.1µ
SYMBOL res -208 -656 R0
SYMATTR InstName Rload1
SYMATTR Value 2.5
SYMBOL npn -1440 -592 R0
SYMATTR InstName Q2
SYMATTR Value 2N5550
SYMBOL SpecialFunctions\\LT4363-1 -768 -320 R0
SYMATTR InstName U2
SYMBOL res -48 -640 R0
SYMATTR InstName R8
SYMATTR Value 10k
SYMBOL res -48 -464 R0
SYMATTR InstName R9
SYMATTR Value 2.7k
SYMBOL res 112 -496 R0
SYMATTR InstName R10
SYMATTR Value 1k
SYMBOL zener 144 -288 R180
WINDOW 0 24 64 Left 2
WINDOW 3 24 0 Left 2
SYMATTR InstName D2
SYMATTR Value TFZ6_2B
SYMBOL nmos -896 -608 R270
SYMATTR InstName M1
SYMATTR Value IRLR2908
SYMBOL res -1040 -672 R90
WINDOW 0 0 56 VBottom 2
WINDOW 3 32 56 VTop 2
SYMATTR InstName R11
SYMATTR Value 0.0000001
TEXT -504 -152 Left 2 !.tran 10 startup
TEXT -1000 -56 Left 2 ;Note:\nOver Voltage     ~ 15V\nUnder Voltage  ~ 10.5V\nOver Current       ~ 6A
