Version 4
SHEET 1 880 680
WIRE -464 -1152 -608 -1152
WIRE -384 -1152 -464 -1152
WIRE -144 -1152 -384 -1152
WIRE -32 -1152 -144 -1152
WIRE 48 -1152 -32 -1152
WIRE 144 -1152 48 -1152
WIRE 240 -1152 144 -1152
WIRE 336 -1152 240 -1152
WIRE 240 -1120 240 -1152
WIRE 336 -1120 336 -1152
WIRE -384 -1104 -384 -1152
WIRE -144 -1104 -144 -1152
WIRE -32 -1104 -32 -1152
WIRE 48 -1104 48 -1152
WIRE 144 -1104 144 -1152
WIRE -608 -1072 -608 -1088
WIRE -384 -976 -384 -1040
WIRE -352 -976 -384 -976
WIRE -144 -976 -144 -1040
WIRE -144 -976 -176 -976
WIRE -608 -944 -608 -1072
WIRE -352 -944 -608 -944
WIRE -32 -944 -32 -1040
WIRE -32 -944 -176 -944
WIRE -608 -912 -608 -944
WIRE -464 -912 -464 -1152
WIRE -352 -912 -464 -912
WIRE 48 -912 48 -1040
WIRE 48 -912 -176 -912
WIRE 144 -880 144 -1040
WIRE 144 -880 -176 -880
WIRE -432 -800 -576 -800
WIRE -432 -784 -432 -800
WIRE -352 -784 -432 -784
WIRE 240 -784 240 -1056
WIRE 240 -784 -176 -784
WIRE -352 -752 -448 -752
WIRE 336 -720 336 -1056
WIRE 336 -720 -176 -720
WIRE -576 -704 -576 -720
WIRE -448 -704 -448 -752
WIRE -448 -704 -576 -704
WIRE -576 -688 -576 -704
FLAG -608 -912 0
FLAG -576 -608 0
SYMBOL LED -400 -1104 R0
WINDOW 3 612 387 Left 2
SYMATTR Value NSCW100
SYMATTR InstName D1
SYMATTR Description Diode
SYMATTR Type diode
SYMBOL LED -160 -1104 R0
WINDOW 3 385 424 Left 2
SYMATTR Value NSCW100
SYMATTR InstName D2
SYMATTR Description Diode
SYMATTR Type diode
SYMBOL LED -16 -1104 M0
WINDOW 3 -337 350 Left 2
SYMATTR Value NSCW100
SYMATTR InstName D3
SYMATTR Description Diode
SYMATTR Type diode
SYMBOL LED 32 -1104 R0
WINDOW 3 184 321 Left 2
SYMATTR Value NSCW100
SYMATTR InstName D4
SYMATTR Description Diode
SYMATTR Type diode
SYMBOL voltage -608 -1168 R0
WINDOW 123 0 0 Left 2
WINDOW 39 0 0 Left 2
WINDOW 0 15 9 Left 2
WINDOW 3 45 58 Left 2
SYMATTR InstName Vled1
SYMATTR Value 5
SYMBOL LM3914asc -272 -784 R0
SYMATTR InstName X1
SYMBOL LED 128 -1104 R0
WINDOW 3 184 321 Left 2
SYMATTR Value NSCW100
SYMATTR InstName D5
SYMATTR Description Diode
SYMATTR Type diode
SYMBOL LED 224 -1120 R0
WINDOW 3 184 321 Left 2
SYMATTR Value NSCW100
SYMATTR InstName D6
SYMATTR Description Diode
SYMATTR Type diode
SYMBOL LED 320 -1120 R0
WINDOW 3 184 321 Left 2
SYMATTR Value NSCW100
SYMATTR InstName D7
SYMATTR Description Diode
SYMATTR Type diode
SYMBOL res -592 -816 R0
SYMATTR InstName R1
SYMBOL res -592 -704 R0
SYMATTR InstName R2
TEXT -672 -1584 Left 2 !.tran 5 uic
